CHEMBL1173305_1900.0_nM
     RDKit          3D

 38 40  0  0  1  0  0  0  0  0999 V2000
   21.3560   -1.4650   26.3820 C   0  0  0  0  0  0  0  0  0  0  0  0
   19.9790   -1.3550   25.7560 C   0  0  0  0  0  0  0  0  0  0  0  0
   19.3310   -2.7030   25.6630 N   0  0  0  0  0  0  0  0  0  0  0  0
   18.8520   -3.2800   26.9620 C   0  0  2  0  0  0  0  0  0  0  0  0
   19.3320   -4.7150   27.1400 C   0  0  0  0  0  0  0  0  0  0  0  0
   18.3830   -5.2670   28.2130 C   0  0  0  0  0  0  0  0  0  0  0  0
   17.2070   -4.3970   28.1320 N   0  0  0  0  0  0  0  0  0  0  0  0
   15.9990   -4.8390   28.6260 C   0  0  0  0  0  0  0  0  0  0  0  0
   15.8500   -6.1850   28.7600 N   0  0  0  0  0  0  0  0  0  0  0  0
   14.6730   -6.6950   29.1640 C   0  0  0  0  0  0  0  0  0  0  0  0
   13.5580   -6.0260   29.4620 N   0  0  0  0  0  0  0  0  0  0  0  0
   13.7420   -4.7030   29.3770 C   0  0  0  0  0  0  0  0  0  0  0  0
   12.7650   -3.7950   29.6630 N   0  0  0  0  0  0  0  0  0  0  0  0
   13.2730   -2.5310   29.5660 C   0  0  0  0  0  0  0  0  0  0  0  0
   14.6090   -2.6230   29.2090 C   0  0  0  0  0  0  0  0  0  0  0  0
   15.5210   -1.4530   29.1420 C   0  0  0  0  0  0  0  0  0  0  0  0
   14.9000   -4.0250   29.0070 C   0  0  0  0  0  0  0  0  0  0  0  0
   17.3230   -3.4400   27.0540 C   0  0  0  0  0  0  0  0  0  0  0  0
   21.3090   -1.8210   27.4150 H   0  0  0  0  0  0  0  0  0  0  0  0
   21.9930   -2.1510   25.8140 H   0  0  0  0  0  0  0  0  0  0  0  0
   21.8410   -0.4840   26.3900 H   0  0  0  0  0  0  0  0  0  0  0  0
   19.3110   -0.7010   26.3250 H   0  0  0  0  0  0  0  0  0  0  0  0
   20.0540   -0.9820   24.7300 H   0  0  0  0  0  0  0  0  0  0  0  0
   18.5450   -2.6410   25.0020 H   0  0  0  0  0  0  0  0  0  0  0  0
   19.9940   -3.3510   25.2140 H   0  0  0  0  0  0  0  0  0  0  0  0
   19.2160   -2.6550   27.7870 H   0  0  0  0  0  0  0  0  0  0  0  0
   19.2110   -5.2890   26.2120 H   0  0  0  0  0  0  0  0  0  0  0  0
   20.3810   -4.7800   27.4440 H   0  0  0  0  0  0  0  0  0  0  0  0
   18.1760   -6.3210   28.0020 H   0  0  0  0  0  0  0  0  0  0  0  0
   18.8330   -5.1850   29.2090 H   0  0  0  0  0  0  0  0  0  0  0  0
   14.6220   -7.7760   29.2450 H   0  0  0  0  0  0  0  0  0  0  0  0
   11.8310   -4.0480   29.9520 H   0  0  0  0  0  0  0  0  0  0  0  0
   12.6570   -1.6730   29.8070 H   0  0  0  0  0  0  0  0  0  0  0  0
   15.2250   -0.6900   29.8710 H   0  0  0  0  0  0  0  0  0  0  0  0
   16.5510   -1.7350   29.3780 H   0  0  0  0  0  0  0  0  0  0  0  0
   15.4860   -0.9940   28.1500 H   0  0  0  0  0  0  0  0  0  0  0  0
   16.8540   -2.4770   27.2390 H   0  0  0  0  0  0  0  0  0  0  0  0
   16.9090   -3.8570   26.1270 H   0  0  0  0  0  0  0  0  0  0  0  0
  1  2  1  0
  2  3  1  0
  3  4  1  0
  4  5  1  0
  4 18  1  0
  5  6  1  0
  6  7  1  0
  7  8  1  0
  7 18  1  0
  8  9  2  0
  8 17  1  0
  9 10  1  0
 10 11  2  0
 11 12  1  0
 12 13  1  0
 12 17  2  0
 13 14  1  0
 14 15  2  0
 15 16  1  0
 15 17  1  0
  1 19  1  0
  1 20  1  0
  1 21  1  0
  2 22  1  0
  2 23  1  0
  3 24  1  0
  3 25  1  0
  4 26  1  1
  5 27  1  0
  5 28  1  0
  6 29  1  0
  6 30  1  0
 10 31  1  0
 13 32  1  0
 14 33  1  0
 16 34  1  0
 16 35  1  0
 16 36  1  0
 18 37  1  0
 18 38  1  0
M  CHG  1   3   1
M  END
$$$$
